
     RDKit          3D

 17 17  0  0  0  0  0  0  0  0999 V2000
   -3.1293   -0.0877    0.0850 N   0  0  0  0  0  0  0  0  0  0  0  0
   -1.7005   -0.0277    0.0769 C   0  0  0  0  0  0  0  0  0  0  0  0
   -1.0176    0.6605    1.0881 C   0  0  0  0  0  0  0  0  0  0  0  0
    0.3794    0.7198    1.0812 C   0  0  0  0  0  0  0  0  0  0  0  0
    1.1147    0.0902    0.0604 C   0  0  0  0  0  0  0  0  0  0  0  0
    2.5930    0.1496    0.0479 C   0  0  0  0  0  0  0  0  0  0  0  0
    3.2151    0.7669    0.9544 O   0  0  0  0  0  0  0  0  0  0  0  0
    3.3121   -0.4769   -0.9668 O   0  0  0  0  0  0  0  0  0  0  0  0
    0.4233   -0.5989   -0.9515 C   0  0  0  0  0  0  0  0  0  0  0  0
   -0.9737   -0.6567   -0.9423 C   0  0  0  0  0  0  0  0  0  0  0  0
   -3.6797    0.3781    0.8406 H   0  0  0  0  0  0  0  0  0  0  0  0
   -3.6472   -0.5984   -0.6646 H   0  0  0  0  0  0  0  0  0  0  0  0
   -1.5674    1.1509    1.8816 H   0  0  0  0  0  0  0  0  0  0  0  0
    0.8826    1.2583    1.8746 H   0  0  0  0  0  0  0  0  0  0  0  0
    4.3244   -0.4423   -0.9848 H   0  0  0  0  0  0  0  0  0  0  0  0
    0.9604   -1.0937   -1.7509 H   0  0  0  0  0  0  0  0  0  0  0  0
   -1.4895   -1.1919   -1.7298 H   0  0  0  0  0  0  0  0  0  0  0  0
  1  2  1  0
  2  3  2  0
  3  4  1  0
  4  5  2  0
  5  6  1  0
  6  7  2  0
  6  8  1  0
  5  9  1  0
  9 10  2  0
 10  2  1  0
  1 11  1  0
  1 12  1  0
  3 13  1  0
  4 14  1  0
  8 15  1  0
  9 16  1  0
 10 17  1  0
M  END
$$$$
